LAMMPS (22 Jul 2025 - Update 2)
# TIO2 MELT QUENCH

variable runString string hot_npt

units             real
dimension         3
atom_style        charge

boundary p p p
read_data         hot_nvt.data
Reading data file ...
  orthogonal box = (0 0 0) to (16 16 16)
  reading atoms ...
  189 atoms
  reading velocities ...
  189 velocities

pair_style buck/coul/long 10.0
pair_coeff 2 2 717654 0.154 120.997
pair_coeff 1 2 391053 0.194 290.392
pair_coeff 1 1 271719 0.234 696.941

kspace_style      ewald 1.0e-4

#fix               F1 all nve
fix               F2 all npt temp 3000.0 3000.0 $(100*dt) iso 0 0 $(100*dt)
fix               F2 all npt temp 3000.0 3000.0 100 iso 0 0 $(100*dt)
fix               F2 all npt temp 3000.0 3000.0 100 iso 0 0 100
#fix               F3 all nvt temp 3000.0 3000.0 $(100*dt)
#fix               F4 all temp/rescale 1 10.0 10.0 5.0 1.0

#velocity          all create 800.0 97475745 dist gaussian

group Ti type 2
63 atoms in group Ti
group O type 1
126 atoms in group O

#compute TiMSD Ti msd com yes average no
#compute OMSD O msd com yes average no

neighbor          0.3 bin
neigh_modify      delay 0 every 1 check yes

thermo            100
thermo_style custom step temp pxx pyy pzz density pe

dump D1 all custom 10000 hot_npt.dump id type x y z ix iy iz

timestep          0.5
run               400000
Ewald initialization ...
  G vector (1/distance) = 0.28450507
  estimated absolute RMS force accuracy = 0.033213181
  estimated relative force accuracy = 0.00010002051
  KSpace vectors: actual max1d max3d = 257 5 665
                  kxmax kymax kzmax  = 5 5 5
Generated 0 of 1 mixed pair_coeff terms from geometric mixing rule
Step          Temp           Pxx            Pyy            Pzz          Density         PotEng
0   3064.7279     -20167.333     -4759.9965     -2007.9261      2.0397933     -53422.903
Averages over the last 2001 of 4001 rows, steps 200000 to 400000:
Temp Pxx Pyy Pzz Density PotEng
3000.16 502.778 -343.569 -248.846 3.42843 -54184.7
Loop time of 450.99 on 1 procs for 400000 steps with 189 atoms

#      minimize          1.0e-6 1.0e-3 1000 1000000

write_data        hot_npt.data nocoeff
System init for write_data ...
Ewald initialization ...
  G vector (1/distance) = 0.28935212
  estimated absolute RMS force accuracy = 0.033353158
  estimated relative force accuracy = 0.00010044204
  KSpace vectors: actual max1d max3d = 128 4 364
                  kxmax kymax kzmax  = 4 4 4
Generated 0 of 1 mixed pair_coeff terms from geometric mixing rule
