LAMMPS (22 Jul 2025 - Update 2)
# TIO2 MELT QUENCH

variable runString string hot_nvt

units             real
dimension         3
atom_style        charge

boundary p p p
read_data         start.data
Reading data file ...
  orthogonal box = (0 0 0) to (16 16 16)
  reading atoms ...
  189 atoms

pair_style buck/coul/long 10.0
pair_coeff 2 2 717654 0.154 120.997
pair_coeff 1 2 391053 0.194 290.392
pair_coeff 1 1 271719 0.234 696.941

kspace_style      ewald 1.0e-4

#fix               F1 all nve
#fix               F2 all npt temp 3000.0 3000.0 $(100*dt) iso 0 0 #(100*dt)
fix               F3 all nvt temp 3000.0 3000.0 $(100*dt)
fix               F3 all nvt temp 3000.0 3000.0 100
#fix               F4 all temp/rescale 1 10.0 10.0 5.0 1.0

#velocity          all create 800.0 97475745 dist gaussian

group Ti type 2
63 atoms in group Ti
group O type 1
126 atoms in group O

#compute TiMSD Ti msd com yes average no
#compute OMSD O msd com yes average no

neighbor          0.3 bin
neigh_modify      delay 0 every 1 check yes

thermo            100
thermo_style custom step temp pxx pyy pzz density pe

dump D1 all custom 10000 hot_nvt.dump id type x y z ix iy iz

timestep          0.5
run               200000
Ewald initialization ...
  G vector (1/distance) = 0.28450507
  estimated absolute RMS force accuracy = 0.033213181
  estimated relative force accuracy = 0.00010002051
  KSpace vectors: actual max1d max3d = 257 5 665
                  kxmax kymax kzmax  = 5 5 5
Generated 0 of 1 mixed pair_coeff terms from geometric mixing rule
Step          Temp           Pxx            Pyy            Pzz          Density         PotEng
0   0             -19421.676      9607.6365      19458.937      2.0397933     -18220.221
Averages over the last 1001 of 2001 rows, steps 100000 to 200000:
Temp Pxx Pyy Pzz Density PotEng
2996.98 -9166.62 -10146.9 -12077.3 2.03979 -53479.5
Loop time of 177.035 on 1 procs for 200000 steps with 189 atoms

#      minimize          1.0e-6 1.0e-3 1000 1000000

write_data        hot_nvt.data nocoeff
System init for write_data ...
Ewald initialization ...
  G vector (1/distance) = 0.28450507
  estimated absolute RMS force accuracy = 0.033213181
  estimated relative force accuracy = 0.00010002051
  KSpace vectors: actual max1d max3d = 257 5 665
                  kxmax kymax kzmax  = 5 5 5
Generated 0 of 1 mixed pair_coeff terms from geometric mixing rule
